*Heading
** Job name: Job-2 Model name: Model-1-hole
** Generated by: Abaqus/CAE 2019
*Preprint, echo=NO, model=NO, history=NO, contact=NO
**
** PARTS
**
*Part, name=plate
*End Part
**  
**
** ASSEMBLY
**
*Assembly, name=Assembly
**  
*Instance, name=plate-1, part=plate
*Node
      1,          90.,         100.,           0.
      2,          90.,          90.,           0.
      3,          10.,          90.,           0.
      4,          10.,         100.,           0.
      5,          90.,          90.,           1.
      6,          10.,          90.,           1.
      7,          10.,         100.,           1.
      8,          90.,         100.,           1.
      9,           0.,          90.,           0.
     10,          10.,          10.,           0.
     11,           0.,          10.,           0.
     12,          10.,          10.,           1.
     13,           0.,          10.,           1.
     14,           0.,          90.,           1.
     15,          10.,           0.,           0.
     16,           0.,           0.,           0.
     17,          10.,           0.,           1.
     18,           0.,           0.,           1.
     19,         100.,          10.,           0.
     20,         100.,          10.,           1.
** ... 20338 like lines cut
*Element, type=C3D8R
  1,    8,  219, 2364,  308,    1,   35, 1653,  210
  2,  219,  218, 2365, 2364,   35,   36, 1654, 1653
  3,  218,  217, 2366, 2365,   36,   37, 1655, 1654
  4,  217,  216, 2367, 2366,   37,   38, 1656, 1655
  5,  216,  215, 2368, 2367,   38,   39, 1657, 1656
  6,  215,  214, 2369, 2368,   39,   40, 1658, 1657
  7,  214,  213, 2370, 2369,   40,   41, 1659, 1658
  8,  213,  212, 2371, 2370,   41,   42, 1660, 1659
  9,  212,  211, 2372, 2371,   42,   43, 1661, 1660
 10,  211,    5,  298, 2372,   43,    2,   44, 1661
 11,  308, 2364, 2373,  309,  210, 1653, 1662,  209
 12, 2364, 2365, 2374, 2373, 1653, 1654, 1663, 1662
 13, 2365, 2366, 2375, 2374, 1654, 1655, 1664, 1663
 14, 2366, 2367, 2376, 2375, 1655, 1656, 1665, 1664
 15, 2367, 2368, 2377, 2376, 1656, 1657, 1666, 1665
 16, 2368, 2369, 2378, 2377, 1657, 1658, 1667, 1666
 17, 2369, 2370, 2379, 2378, 1658, 1659, 1668, 1667
 18, 2370, 2371, 2380, 2379, 1659, 1660, 1669, 1668
 19, 2371, 2372, 2381, 2380, 1660, 1661, 1670, 1669
 20, 2372,  298,  297, 2381, 1661,   44,   45, 1670
** ... 9942 like lines cut
*Nset, nset=Set-1, generate
     1,  20358,      1
*Elset, elset=Set-1, generate
    1,  9962,     1
** Section: alu
*Solid Section, elset=Set-1, material=alumni
,
*End Instance
**  
*Nset, nset=Fr, instance=plate-1
 6,
*Nset, nset=Se, instance=plate-1
 24,
*Nset, nset=Set-1, instance=plate-1
    1,    4,    7,    8,    9,   11,   13,   14,   15,   16,   17,   18,   19,   20,   21,   22
   25,   26,   27,   28,   29,   30,   31,   32,  132,  133,  134,  135,  136,  137,  138,  139
  140,  141,  142,  143,  144,  145,  146,  147,  148,  149,  150,  151,  152,  153,  154,  155
  156,  157,  158,  159,  160,  161,  162,  163,  164,  165,  166,  167,  168,  169,  170,  171
  172,  173,  174,  175,  176,  177,  178,  179,  180,  181,  182,  183,  184,  185,  186,  187
  188,  189,  190,  191,  192,  193,  194,  195,  196,  197,  198,  199,  200,  201,  202,  203
  204,  205,  206,  207,  208,  209,  210,  308,  309,  310,  311,  312,  313,  314,  315,  316
  317,  318,  319,  320,  321,  322,  323,  324,  325,  326,  327,  328,  329,  330,  331,  332
  333,  334,  335,  336,  337,  338,  339,  340,  341,  342,  343,  344,  345,  346,  347,  348
  349,  350,  351,  352,  353,  354,  355,  356,  357,  358,  359,  360,  361,  362,  363,  364
  365,  366,  367,  368,  369,  370,  371,  372,  373,  374,  375,  376,  377,  378,  379,  380
  381,  382,  383,  384,  385,  386,  484,  485,  486,  487,  488,  489,  490,  491,  492,  493
  494,  495,  496,  497,  498,  499,  500,  501,  502,  503,  504,  505,  506,  507,  508,  509
  510,  511,  512,  513,  514,  515,  516,  517,  518,  519,  520,  521,  522,  523,  524,  525
  526,  527,  528,  529,  530,  531,  532,  533,  534,  535,  536,  537,  538,  539,  540,  541
  542,  543,  544,  545,  546,  547,  548,  549,  550,  551,  552,  553,  554,  555,  556,  557
  558,  559,  560,  561,  562,  660,  661,  662,  663,  664,  665,  666,  667,  668,  669,  670
  671,  672,  673,  674,  675,  676,  677,  678,  679,  680,  681,  682,  683,  684,  685,  686
  687,  688,  689,  690,  691,  692,  693,  694,  695,  696,  697,  698,  699,  700,  701,  702
  703,  704,  705,  706,  707,  708,  709,  710,  711,  712,  713,  714,  715,  716,  717,  718
** ... 30 like lines cut
*Elset, elset=Set-1, instance=plate-1
    1,   11,   21,   31,   41,   51,   61,   71,   81,   91,  101,  111,  121,  131,  141,  151
  161,  171,  181,  191,  201,  211,  221,  231,  241,  251,  261,  271,  281,  291,  301,  311
  321,  331,  341,  351,  361,  371,  381,  391,  401,  411,  421,  431,  441,  451,  461,  471
  481,  491,  501,  511,  521,  531,  541,  551,  561,  571,  581,  591,  601,  611,  621,  631
  641,  651,  661,  671,  681,  691,  701,  711,  721,  731,  741,  751,  761,  771,  781,  791
  801,  811,  821,  831,  841,  851,  861,  871,  881,  891,  901,  911,  921,  931,  941,  951
  961,  971,  981,  991, 1001, 1011, 1021, 1031, 1041, 1051, 1061, 1071, 1081, 1091, 1101, 1111
 1121, 1131, 1141, 1151, 1161, 1171, 1181, 1191, 1201, 1211, 1221, 1231, 1241, 1251, 1261, 1271
 1281, 1291, 1301, 1311, 1321, 1331, 1341, 1351, 1361, 1371, 1381, 1391, 1401, 1411, 1421, 1431
 1441, 1451, 1461, 1471, 1481, 1491, 1501, 1511, 1521, 1531, 1541, 1551, 1561, 1571, 1581, 1591
 1601, 1611, 1621, 1631, 1641, 1651, 1661, 1671, 1681, 1691, 1692, 1693, 1694, 1695, 1696, 1697
 1698, 1699, 1700, 1701, 1702, 1703, 1704, 1705, 1706, 1707, 1708, 1709, 1710, 1720, 1730, 1740
 1750, 1760, 1770, 1780, 1790, 1800, 2521, 2522, 2523, 2524, 2525, 2526, 2527, 2528, 2529, 2530
 2531, 2532, 2533, 2534, 2535, 2536, 2537, 2538, 2539, 2540, 2541, 2542, 2543, 2544, 2545, 2546
 2547, 2548, 2549, 2550, 2551, 2552, 2553, 2554, 2555, 2556, 2557, 2558, 2559, 2560, 2561, 2562
 2563, 2564, 2565, 2566, 2567, 2568, 2569, 2570, 2571, 2572, 2573, 2574, 2575, 2576, 2577, 2578
 2579, 2580, 2581, 2582, 2583, 2584, 2585, 2586, 2587, 2588, 2589, 2590, 2591, 2592, 2593, 2594
 2595, 2596, 2597, 2598, 2599, 2600, 3321, 3322, 3323, 3324, 3325, 3326, 3327, 3328, 3329, 3330
 3331, 3332, 3333, 3334, 3335, 3336, 3337, 3338, 3339, 3340, 3341, 3342, 3343, 3344, 3345, 3346
 3347, 3348, 3349, 3350, 3351, 3352, 3353, 3354, 3355, 3356, 3357, 3358, 3359, 3360, 3361, 3362
** ... 5 like lines cut
*End Assembly
*Amplitude, name=Amp-1
             0.,              0.,           2e-06,             -1.,           4e-06,              1.,           6e-06,             -1.
          8e-06,              1.,           1e-05,              0.
** 
** MATERIALS
** 
*Material, name=alumni
*Density
 2.5e-09,
*Elastic
62000., 0.33
** ----------------------------------------------------------------
** 
** STEP: Step-1
** 
*Step, name=Step-1, nlgeom=YES
*Dynamic, Explicit
, 0.0001,, 1e-07
*Bulk Viscosity
0.06, 1.2
** 
** BOUNDARY CONDITIONS
** 
** Name: BC-1 Type: Displacement/Rotation
*Boundary
Set-1, 1, 1
Set-1, 2, 2
Set-1, 3, 3
** 
** LOADS
** 
** Name: Load-1   Type: Concentrated force
*Cload, amplitude=Amp-1
Fr, 3, 1.
** 
** OUTPUT REQUESTS
** 
*Restart, write, number interval=1, time marks=NO
** 
** FIELD OUTPUT: F-Output-1
** 
*Output, field, variable=PRESELECT
** 
** FIELD OUTPUT: F-Output-2
** 
*Output, field, number interval=100
*Node Output
U, 
** 
** HISTORY OUTPUT: H-Output-2
** 
*Output, history, frequency=1
*Node Output, nset=Se
U1, U2, U3, UR1, UR2, UR3
** 
** HISTORY OUTPUT: H-Output-1
** 
*Output, history, variable=PRESELECT
*End Step
